Version 4
SHEET 1 3024 904
WIRE 2384 80 2384 32
WIRE 1712 112 1712 64
WIRE 1744 112 1712 112
WIRE 1856 112 1808 112
WIRE 1856 144 1856 112
WIRE 1584 192 1520 192
WIRE 1808 192 1664 192
WIRE 2384 192 2384 160
WIRE 2384 192 2272 192
WIRE 2384 224 2384 192
WIRE 2272 240 2272 192
WIRE 1712 256 1712 112
WIRE 1360 272 1312 272
WIRE 1520 272 1520 192
WIRE 1520 272 1440 272
WIRE 1680 272 1520 272
WIRE 1808 288 1808 192
WIRE 1808 288 1744 288
WIRE 1872 288 1808 288
WIRE 2016 288 1936 288
WIRE 1680 304 1648 304
WIRE 2016 336 2016 288
WIRE 2384 368 2384 304
WIRE 2160 384 2064 384
WIRE 1712 400 1712 320
WIRE 1744 400 1712 400
WIRE 1856 400 1808 400
WIRE 1856 432 1856 400
WIRE 1648 448 1648 304
WIRE 1712 448 1712 400
WIRE 2016 464 2016 416
FLAG 1648 448 0
FLAG 1856 144 0
FLAG 1712 64 vdd!
FLAG 1712 448 -vdd!
FLAG 2160 384 Out
IOPIN 2160 384 Out
FLAG 1856 432 0
FLAG 2384 32 vdd!
FLAG 2384 368 -vdd!
FLAG 2272 240 0
FLAG 2016 464 0
SYMBOL cap 1808 96 R90
WINDOW 0 0 32 VBottom 2
WINDOW 3 32 32 VTop 2
SYMATTR InstName C5
SYMATTR Value 0.1µ
SYMBOL cap 1808 384 R90
WINDOW 0 0 32 VBottom 2
WINDOW 3 32 32 VTop 2
SYMATTR InstName C6
SYMATTR Value 0.1µ
SYMBOL res 1456 256 R90
WINDOW 0 0 56 VBottom 2
WINDOW 3 32 56 VTop 2
SYMATTR InstName R3
SYMATTR Value 47k
SYMBOL cap 1936 272 R90
WINDOW 0 0 32 VBottom 2
WINDOW 3 32 32 VTop 2
SYMATTR InstName C8
SYMATTR Value 10µ
SYMBOL voltage 2384 64 R0
WINDOW 123 0 0 Left 0
WINDOW 39 0 0 Left 0
SYMATTR InstName V4
SYMATTR Value 12V
SYMBOL voltage 2384 208 R0
WINDOW 123 0 0 Left 0
WINDOW 39 0 0 Left 0
SYMATTR InstName V5
SYMATTR Value 12V
SYMBOL res 1680 176 R90
WINDOW 0 0 56 VBottom 2
WINDOW 3 32 56 VTop 2
SYMATTR InstName R1
SYMATTR Value 80.6k
SYMBOL potentiometer_standard 2000 320 R0
SYMATTR InstName U1
SYMATTR Value Rtot=50K wiper=.5
SYMBOL Opamps\\opamp2 1712 224 R0
SYMATTR InstName U2
SYMATTR Value uA741
TEXT 1296 544 Left 2 !.wav "C:\\Users\\b59mi\\Documents\\Business\\\n4th Year Engineering\\Semester 1\\ECE490\\\nAnalog-Drum-Machine\\Mixer\\Summing_Test.wav" 16 44100 Out
TEXT 1296 504 Left 2 !.tran 0 4 0
