Version 4
SHEET 1 3024 1384
WIRE 528 -368 528 -400
WIRE 560 -368 528 -368
WIRE 640 -368 624 -368
WIRE 640 -320 640 -368
WIRE 416 -288 336 -288
WIRE 624 -288 496 -288
WIRE 528 -224 528 -368
WIRE 96 -208 16 -208
WIRE 192 -208 160 -208
WIRE 336 -208 336 -288
WIRE 336 -208 272 -208
WIRE 496 -208 336 -208
WIRE 528 -208 528 -224
WIRE 624 -192 624 -288
WIRE 624 -192 560 -192
WIRE 688 -192 624 -192
WIRE 800 -192 752 -192
WIRE 16 -176 16 -208
WIRE 496 -176 464 -176
WIRE 800 -144 800 -192
WIRE 976 -96 848 -96
WIRE 528 -80 528 -160
WIRE 560 -80 528 -80
WIRE 640 -80 624 -80
WIRE 16 -48 16 -96
WIRE 528 -48 528 -80
WIRE 464 -32 464 -176
WIRE 640 -32 640 -80
WIRE 800 -32 800 -64
WIRE 2336 -16 2336 -64
WIRE 2336 96 2336 64
WIRE 2336 96 2224 96
WIRE 1712 112 1712 64
WIRE 1744 112 1712 112
WIRE 1856 112 1808 112
WIRE 2336 128 2336 96
WIRE 1856 144 1856 112
WIRE 2224 144 2224 96
WIRE 528 160 528 128
WIRE 560 160 528 160
WIRE 640 160 624 160
WIRE 1600 192 1520 192
WIRE 1808 192 1680 192
WIRE 640 208 640 160
WIRE 416 240 336 240
WIRE 624 240 496 240
WIRE 1712 256 1712 112
WIRE 1360 272 1232 272
WIRE 1520 272 1520 192
WIRE 1520 272 1440 272
WIRE 1680 272 1520 272
WIRE 2336 272 2336 208
WIRE 1808 288 1808 192
WIRE 1808 288 1744 288
WIRE 1856 288 1808 288
WIRE 1968 288 1920 288
WIRE 528 304 528 160
WIRE 1680 304 1648 304
WIRE 96 320 16 320
WIRE 192 320 160 320
WIRE 336 320 336 240
WIRE 336 320 272 320
WIRE 496 320 336 320
WIRE 528 320 528 304
WIRE 624 336 624 240
WIRE 624 336 560 336
WIRE 688 336 624 336
WIRE 800 336 752 336
WIRE 1968 336 1968 288
WIRE 16 352 16 320
WIRE 496 352 464 352
WIRE 800 384 800 336
WIRE 1360 384 1232 384
WIRE 1520 384 1520 272
WIRE 1520 384 1440 384
WIRE 2112 384 2016 384
WIRE 1712 400 1712 320
WIRE 1744 400 1712 400
WIRE 1856 400 1808 400
WIRE 976 432 848 432
WIRE 1856 432 1856 400
WIRE 528 448 528 368
WIRE 560 448 528 448
WIRE 640 448 624 448
WIRE 1648 448 1648 304
WIRE 1712 448 1712 400
WIRE 1968 464 1968 416
WIRE 16 480 16 432
WIRE 528 480 528 448
WIRE 464 496 464 352
WIRE 640 496 640 448
WIRE 800 496 800 464
WIRE 1360 496 1232 496
WIRE 1520 496 1520 384
WIRE 1520 496 1440 496
WIRE 528 672 528 640
WIRE 560 672 528 672
WIRE 640 672 624 672
WIRE 640 720 640 672
WIRE 416 752 336 752
WIRE 624 752 496 752
WIRE 528 816 528 672
WIRE 96 832 16 832
WIRE 192 832 160 832
WIRE 336 832 336 752
WIRE 336 832 272 832
WIRE 496 832 336 832
WIRE 528 832 528 816
WIRE 624 848 624 752
WIRE 624 848 560 848
WIRE 688 848 624 848
WIRE 800 848 752 848
WIRE 16 864 16 832
WIRE 496 864 464 864
WIRE 800 896 800 848
WIRE 976 944 848 944
WIRE 528 960 528 880
WIRE 560 960 528 960
WIRE 640 960 624 960
WIRE 16 992 16 944
WIRE 528 992 528 960
WIRE 464 1008 464 864
WIRE 640 1008 640 960
WIRE 800 1008 800 976
FLAG 1648 448 0
FLAG 1856 144 0
FLAG 1712 64 vdd!
FLAG 1712 448 -vdd!
FLAG 2112 384 Out
IOPIN 2112 384 Out
FLAG 1856 432 0
FLAG 2336 -64 vdd!
FLAG 2336 272 -vdd!
FLAG 2224 144 0
FLAG 1968 464 0
FLAG 464 -32 0
FLAG 800 -32 0
FLAG 640 -320 0
FLAG 528 -400 vdd!
FLAG 16 -48 0
FLAG 528 -48 -vdd!
FLAG 640 -32 0
FLAG 976 -96 pow1
FLAG 1232 272 pow1
FLAG 1232 384 pow2
FLAG 464 496 0
FLAG 800 496 0
FLAG 640 208 0
FLAG 528 128 vdd!
FLAG 16 480 0
FLAG 528 480 -vdd!
FLAG 640 496 0
FLAG 976 432 pow2
FLAG 464 1008 0
FLAG 800 1008 0
FLAG 640 720 0
FLAG 528 640 vdd!
FLAG 16 992 0
FLAG 528 992 -vdd!
FLAG 640 1008 0
FLAG 976 944 pow2
FLAG 1232 496 pow3
SYMBOL cap 1808 96 R90
WINDOW 0 0 32 VBottom 2
WINDOW 3 32 32 VTop 2
SYMATTR InstName C5
SYMATTR Value 0.1µ
SYMBOL cap 1808 384 R90
WINDOW 0 0 32 VBottom 2
WINDOW 3 32 32 VTop 2
SYMATTR InstName C6
SYMATTR Value 0.1µ
SYMBOL res 1456 256 R90
WINDOW 0 0 56 VBottom 2
WINDOW 3 32 56 VTop 2
SYMATTR InstName R3
SYMATTR Value 47k
SYMBOL cap 1920 272 R90
WINDOW 0 0 32 VBottom 2
WINDOW 3 32 32 VTop 2
SYMATTR InstName C8
SYMATTR Value 10µ
SYMBOL voltage 2336 -32 R0
WINDOW 123 0 0 Left 0
WINDOW 39 0 0 Left 0
SYMATTR InstName V4
SYMATTR Value 12V
SYMBOL voltage 2336 112 R0
WINDOW 123 0 0 Left 0
WINDOW 39 0 0 Left 0
SYMATTR InstName V5
SYMATTR Value 12V
SYMBOL res 1696 176 R90
WINDOW 0 0 56 VBottom 2
WINDOW 3 32 56 VTop 2
SYMATTR InstName R1
SYMATTR Value 80.6k
SYMBOL potentiometer_standard 1952 320 R0
SYMATTR InstName U1
SYMATTR Value Rtot=50K wiper={M_Volume}
SYMATTR SpiceLine ""
SYMBOL Opamps\\opamp2 1712 224 R0
SYMATTR InstName U2
SYMATTR Value uA741
SYMBOL cap 624 -384 R90
WINDOW 0 0 32 VBottom 2
WINDOW 3 32 32 VTop 2
SYMATTR InstName C1
SYMATTR Value 0.1µ
SYMBOL res 288 -224 R90
WINDOW 0 0 56 VBottom 2
WINDOW 3 32 56 VTop 2
SYMATTR InstName R2
SYMATTR Value 1k
SYMBOL voltage 16 -192 R0
WINDOW 3 -71 -10 VRight 2
WINDOW 123 27 110 Left 2
SYMATTR Value SINE(0 1 60)
SYMATTR Value2 AC 1
SYMATTR InstName V2
SYMBOL cap 624 -96 R90
WINDOW 0 0 32 VBottom 2
WINDOW 3 32 32 VTop 2
SYMATTR InstName C2
SYMATTR Value 0.1µ
SYMBOL cap 160 -224 R90
WINDOW 0 0 32 VBottom 2
WINDOW 3 32 32 VTop 2
SYMATTR InstName C3
SYMATTR Value 10µ
SYMBOL Opamps\\opamp2 528 -256 R0
SYMATTR InstName U3
SYMATTR Value uA741
SYMBOL res 512 -304 R90
WINDOW 0 0 56 VBottom 2
WINDOW 3 32 56 VTop 2
SYMATTR InstName R4
SYMATTR Value 1k
SYMBOL potentiometer_standard 784 -160 R0
SYMATTR InstName U4
SYMATTR Value Rtot=50K wiper=1
SYMATTR SpiceLine ""
SYMBOL cap 752 -208 R90
WINDOW 0 0 32 VBottom 2
WINDOW 3 32 32 VTop 2
SYMATTR InstName C4
SYMATTR Value 1µ
SYMBOL res 1456 368 R90
WINDOW 0 0 56 VBottom 2
WINDOW 3 32 56 VTop 2
SYMATTR InstName R5
SYMATTR Value 47k
SYMBOL cap 624 144 R90
WINDOW 0 0 32 VBottom 2
WINDOW 3 32 32 VTop 2
SYMATTR InstName C7
SYMATTR Value 0.1µ
SYMBOL res 288 304 R90
WINDOW 0 0 56 VBottom 2
WINDOW 3 32 56 VTop 2
SYMATTR InstName R6
SYMATTR Value 1k
SYMBOL voltage 16 336 R0
WINDOW 3 -71 -10 VRight 2
WINDOW 123 27 110 Left 2
WINDOW 39 0 0 Left 0
SYMATTR Value SINE(0 1 120)
SYMATTR Value2 AC 1
SYMATTR InstName V1
SYMBOL cap 624 432 R90
WINDOW 0 0 32 VBottom 2
WINDOW 3 32 32 VTop 2
SYMATTR InstName C9
SYMATTR Value 0.1µ
SYMBOL cap 160 304 R90
WINDOW 0 0 32 VBottom 2
WINDOW 3 32 32 VTop 2
SYMATTR InstName C10
SYMATTR Value 10µ
SYMBOL Opamps\\opamp2 528 272 R0
SYMATTR InstName U5
SYMATTR Value uA741
SYMBOL res 512 224 R90
WINDOW 0 0 56 VBottom 2
WINDOW 3 32 56 VTop 2
SYMATTR InstName R7
SYMATTR Value 1k
SYMBOL potentiometer_standard 784 368 R0
SYMATTR InstName U6
SYMATTR Value Rtot=50K wiper=1
SYMATTR SpiceLine ""
SYMBOL cap 752 320 R90
WINDOW 0 0 32 VBottom 2
WINDOW 3 32 32 VTop 2
SYMATTR InstName C11
SYMATTR Value 1µ
SYMBOL cap 624 656 R90
WINDOW 0 0 32 VBottom 2
WINDOW 3 32 32 VTop 2
SYMATTR InstName C12
SYMATTR Value 0.1µ
SYMBOL res 288 816 R90
WINDOW 0 0 56 VBottom 2
WINDOW 3 32 56 VTop 2
SYMATTR InstName R8
SYMATTR Value 1k
SYMBOL voltage 16 848 R0
WINDOW 3 -71 -10 VRight 2
WINDOW 123 27 110 Left 2
WINDOW 39 0 0 Left 0
SYMATTR Value SINE(0 1 20)
SYMATTR Value2 AC 1
SYMATTR InstName V3
SYMBOL cap 624 944 R90
WINDOW 0 0 32 VBottom 2
WINDOW 3 32 32 VTop 2
SYMATTR InstName C13
SYMATTR Value 0.1µ
SYMBOL cap 160 816 R90
WINDOW 0 0 32 VBottom 2
WINDOW 3 32 32 VTop 2
SYMATTR InstName C14
SYMATTR Value 10µ
SYMBOL Opamps\\opamp2 528 784 R0
SYMATTR InstName U7
SYMATTR Value uA741
SYMBOL res 512 736 R90
WINDOW 0 0 56 VBottom 2
WINDOW 3 32 56 VTop 2
SYMATTR InstName R9
SYMATTR Value 1k
SYMBOL potentiometer_standard 784 880 R0
SYMATTR InstName U8
SYMATTR Value Rtot=50K wiper=1
SYMATTR SpiceLine ""
SYMBOL cap 752 832 R90
WINDOW 0 0 32 VBottom 2
WINDOW 3 32 32 VTop 2
SYMATTR InstName C15
SYMATTR Value 1µ
SYMBOL res 1456 480 R90
WINDOW 0 0 56 VBottom 2
WINDOW 3 32 56 VTop 2
SYMATTR InstName R10
SYMATTR Value 47k
TEXT 1296 624 Left 2 !.inc uA741.sub
TEXT 1296 648 Left 2 !.wav "C:\\Users\\b59mi\\Documents\\Business\\4th Year Engineering\\Semester 1\\ECE490\\Analog-Drum-Machine\\Mixer\\Preamp.wav" 16 44100 Out
TEXT 1304 592 Left 2 !.tran 0 0.2 0
TEXT 1968 504 Left 2 !.step param M_Volume 1 0.1 0.1
