Version 4
SHEET 1 3024 904
WIRE 112 -416 0 -416
WIRE 272 -416 176 -416
WIRE 336 -352 336 -400
WIRE 368 -352 336 -352
WIRE 480 -352 432 -352
WIRE 480 -320 480 -352
WIRE 272 -256 272 -416
WIRE 272 -256 224 -256
WIRE 0 -224 0 -416
WIRE 32 -224 0 -224
WIRE 176 -224 112 -224
WIRE 272 -224 272 -256
WIRE 432 -224 272 -224
WIRE 2096 -224 2096 -272
WIRE 336 -192 336 -352
WIRE -288 -176 -336 -176
WIRE -144 -176 -224 -176
WIRE -32 -176 -64 -176
WIRE 0 -176 0 -224
WIRE 0 -176 -32 -176
WIRE 304 -176 0 -176
WIRE 432 -160 432 -224
WIRE 432 -160 368 -160
WIRE 544 -160 432 -160
WIRE -336 -144 -336 -176
WIRE 304 -144 272 -144
WIRE 544 -112 544 -160
WIRE 2096 -112 2096 -144
WIRE 2096 -112 1984 -112
WIRE 2096 -80 2096 -112
WIRE 336 -64 336 -128
WIRE 368 -64 336 -64
WIRE 448 -64 432 -64
WIRE 1040 -64 592 -64
WIRE 1152 -64 1120 -64
WIRE 1984 -64 1984 -112
WIRE -336 -16 -336 -64
WIRE 448 -16 448 -64
WIRE 272 0 272 -144
WIRE 544 0 544 -32
WIRE 336 16 336 -64
WIRE 1424 16 1296 16
WIRE 1632 16 1488 16
WIRE 1040 32 992 32
WIRE 1152 32 1152 -64
WIRE 1152 32 1120 32
WIRE 2096 64 2096 0
WIRE 1712 96 1712 48
WIRE 1744 96 1712 96
WIRE 1856 96 1808 96
WIRE 1040 128 992 128
WIRE 1152 128 1152 32
WIRE 1152 128 1120 128
WIRE 1856 128 1856 96
WIRE 1632 160 1632 16
WIRE 1632 160 1504 160
WIRE 1296 192 1296 16
WIRE 1456 192 1296 192
WIRE 1040 224 992 224
WIRE 1152 224 1152 128
WIRE 1152 224 1120 224
WIRE 1632 224 1632 160
WIRE 1808 224 1632 224
WIRE 112 256 0 256
WIRE 272 256 176 256
WIRE 1712 256 1712 96
WIRE 1152 272 1152 224
WIRE 1296 272 1296 192
WIRE 1296 272 1152 272
WIRE 1680 272 1296 272
WIRE 1808 288 1808 224
WIRE 1808 288 1744 288
WIRE 1936 288 1808 288
WIRE 2048 288 2000 288
WIRE 2176 288 2128 288
WIRE 1680 304 1648 304
WIRE 336 320 336 272
WIRE 368 320 336 320
WIRE 480 320 432 320
WIRE 1040 320 992 320
WIRE 1152 320 1152 272
WIRE 1152 320 1120 320
WIRE 480 352 480 320
WIRE 272 416 272 256
WIRE 272 416 224 416
WIRE 1040 416 992 416
WIRE 1152 416 1152 320
WIRE 1152 416 1120 416
WIRE 1712 432 1712 320
WIRE 1744 432 1712 432
WIRE 1856 432 1808 432
WIRE 0 448 0 256
WIRE 32 448 0 448
WIRE 176 448 112 448
WIRE 272 448 272 416
WIRE 432 448 272 448
WIRE 1648 448 1648 304
WIRE 1856 464 1856 432
WIRE 336 480 336 320
WIRE -288 496 -336 496
WIRE -144 496 -224 496
WIRE -32 496 -64 496
WIRE 0 496 0 448
WIRE 0 496 -32 496
WIRE 304 496 0 496
WIRE 432 512 432 448
WIRE 432 512 368 512
WIRE 544 512 432 512
WIRE 1040 512 992 512
WIRE 1152 512 1152 416
WIRE 1152 512 1120 512
WIRE 1712 512 1712 432
WIRE -336 528 -336 496
WIRE 304 528 272 528
WIRE 544 560 544 512
WIRE 336 608 336 544
WIRE 368 608 336 608
WIRE 448 608 432 608
WIRE 1040 608 592 608
WIRE 1152 608 1152 512
WIRE 1152 608 1120 608
WIRE -336 656 -336 608
WIRE 448 656 448 608
WIRE 272 672 272 528
WIRE 544 672 544 640
WIRE 336 688 336 608
FLAG 272 672 0
FLAG 544 672 0
FLAG 480 352 0
FLAG 336 272 vdd!
FLAG -336 656 0
FLAG 336 688 -vdd!
FLAG 448 656 0
FLAG -32 496 IN
FLAG 1648 448 0
FLAG 1856 128 0
FLAG 1712 48 vdd!
FLAG 1712 512 -vdd!
FLAG 2176 288 Out
IOPIN 2176 288 Out
FLAG 1856 464 0
FLAG 2096 -272 vdd!
FLAG 2096 64 -vdd!
FLAG 1984 -64 0
FLAG 272 0 0
FLAG 544 0 0
FLAG 480 -320 0
FLAG 336 -400 vdd!
FLAG -336 -16 0
FLAG 336 16 -vdd!
FLAG 448 -16 0
FLAG -32 -176 IN
SYMBOL cap 432 304 R90
WINDOW 0 0 32 VBottom 2
WINDOW 3 32 32 VTop 2
SYMATTR InstName C1
SYMATTR Value 220n
SYMBOL cap 176 240 R90
WINDOW 0 0 32 VBottom 2
WINDOW 3 32 32 VTop 2
SYMATTR InstName C2
SYMATTR Value 0.15n
SYMBOL res 128 432 R90
WINDOW 0 0 56 VBottom 2
WINDOW 3 32 56 VTop 2
SYMATTR InstName R1
SYMATTR Value 4.7k
SYMBOL res -48 480 R90
WINDOW 0 0 56 VBottom 2
WINDOW 3 32 56 VTop 2
SYMATTR InstName R2
SYMATTR Value 10k
SYMBOL Opamps\\OP4177 336 448 R0
SYMATTR InstName U1
SYMBOL cap 432 592 R90
WINDOW 0 0 32 VBottom 2
WINDOW 3 32 32 VTop 2
SYMATTR InstName C3
SYMATTR Value 220n
SYMBOL cap -224 480 R90
WINDOW 0 0 32 VBottom 2
WINDOW 3 32 32 VTop 2
SYMATTR InstName C4
SYMATTR Value 10µ
SYMBOL potentiometer_standard 528 544 R0
SYMATTR InstName U2
SYMATTR Value Rtot=22K wiper=0.1
SYMATTR SpiceModel pot_pow
SYMBOL potentiometer_standard 160 352 R0
WINDOW 3 -114 -12 Left 2
WINDOW 39 -116 -35 Left 2
SYMATTR Value Rtot=22K wiper=1
SYMATTR InstName U3
SYMATTR SpiceModel pot_pow
SYMBOL cap 1808 80 R90
WINDOW 0 0 32 VBottom 2
WINDOW 3 32 32 VTop 2
SYMATTR InstName C5
SYMATTR Value 100n
SYMBOL cap 1808 416 R90
WINDOW 0 0 32 VBottom 2
WINDOW 3 32 32 VTop 2
SYMATTR InstName C6
SYMATTR Value 100n
SYMBOL res 1136 -80 R90
WINDOW 0 0 56 VBottom 2
WINDOW 3 32 56 VTop 2
SYMATTR InstName R3
SYMATTR Value 4.7k
SYMBOL cap 1488 0 R90
WINDOW 0 0 32 VBottom 2
WINDOW 3 32 32 VTop 2
SYMATTR InstName C7
SYMATTR Value 0.85n
SYMBOL cap 2000 272 R90
WINDOW 0 0 32 VBottom 2
WINDOW 3 32 32 VTop 2
SYMATTR InstName C8
SYMATTR Value 4.7µ
SYMBOL res 2144 272 R90
WINDOW 0 0 56 VBottom 2
WINDOW 3 32 56 VTop 2
SYMATTR InstName R4
SYMATTR Value 47
SYMBOL res 1136 16 R90
WINDOW 0 0 56 VBottom 2
WINDOW 3 32 56 VTop 2
SYMATTR InstName R5
SYMATTR Value 4.7k
SYMBOL res 1136 112 R90
WINDOW 0 0 56 VBottom 2
WINDOW 3 32 56 VTop 2
SYMATTR InstName R6
SYMATTR Value 4.7k
SYMBOL res 1136 208 R90
WINDOW 0 0 56 VBottom 2
WINDOW 3 32 56 VTop 2
SYMATTR InstName R7
SYMATTR Value 4.7k
SYMBOL res 1136 304 R90
WINDOW 0 0 56 VBottom 2
WINDOW 3 32 56 VTop 2
SYMATTR InstName R8
SYMATTR Value 4.7k
SYMBOL res 1136 400 R90
WINDOW 0 0 56 VBottom 2
WINDOW 3 32 56 VTop 2
SYMATTR InstName R9
SYMATTR Value 4.7k
SYMBOL res 1136 496 R90
WINDOW 0 0 56 VBottom 2
WINDOW 3 32 56 VTop 2
SYMATTR InstName R10
SYMATTR Value 4.7k
SYMBOL res 1136 592 R90
WINDOW 0 0 56 VBottom 2
WINDOW 3 32 56 VTop 2
SYMATTR InstName R11
SYMATTR Value 4.7k
SYMBOL voltage 2096 -240 R0
WINDOW 123 0 0 Left 0
WINDOW 39 0 0 Left 0
SYMATTR InstName V4
SYMATTR Value 15V
SYMBOL voltage 2096 -96 R0
WINDOW 123 0 0 Left 0
WINDOW 39 0 0 Left 0
SYMATTR InstName V5
SYMATTR Value 15V
SYMBOL Opamps\\OP4177 1712 224 R0
SYMATTR InstName U4
SYMBOL potentiometer_standard 1440 96 R0
SYMATTR InstName U5
SYMATTR Value Rtot=4.7K wiper=0.7
SYMATTR SpiceModel pot_pow
SYMBOL cap 432 -368 R90
WINDOW 0 0 32 VBottom 2
WINDOW 3 32 32 VTop 2
SYMATTR InstName C9
SYMATTR Value 220n
SYMBOL cap 176 -432 R90
WINDOW 0 0 32 VBottom 2
WINDOW 3 32 32 VTop 2
SYMATTR InstName C10
SYMATTR Value 0.15n
SYMBOL res 128 -240 R90
WINDOW 0 0 56 VBottom 2
WINDOW 3 32 56 VTop 2
SYMATTR InstName R12
SYMATTR Value 4.7k
SYMBOL res -48 -192 R90
WINDOW 0 0 56 VBottom 2
WINDOW 3 32 56 VTop 2
SYMATTR InstName R13
SYMATTR Value 10k
SYMBOL Opamps\\OP4177 336 -224 R0
SYMATTR InstName U6
SYMBOL cap 432 -80 R90
WINDOW 0 0 32 VBottom 2
WINDOW 3 32 32 VTop 2
SYMATTR InstName C11
SYMATTR Value 220n
SYMBOL cap -224 -192 R90
WINDOW 0 0 32 VBottom 2
WINDOW 3 32 32 VTop 2
SYMATTR InstName C12
SYMATTR Value 10µ
SYMBOL potentiometer_standard 528 -128 R0
SYMATTR InstName U7
SYMATTR Value Rtot=22K wiper=1
SYMATTR SpiceModel pot_pow
SYMBOL potentiometer_standard 160 -320 R0
WINDOW 3 -114 -12 Left 2
WINDOW 39 -116 -35 Left 2
SYMATTR Value Rtot=22K wiper=1
SYMATTR InstName U8
SYMATTR SpiceModel pot_pow
SYMBOL voltage -336 -160 R0
WINDOW 123 0 0 Left 0
WINDOW 39 0 0 Left 0
SYMATTR InstName V1
SYMATTR Value SINE(0 .5 440)
SYMBOL voltage -336 512 R0
WINDOW 123 0 0 Left 0
WINDOW 39 0 0 Left 0
SYMATTR InstName V2
SYMATTR Value SINE(0 0 261.6)
TEXT 1336 688 Left 2 !.wav "C:\\Users\\b59mi\\Documents\\Business\\4th Year Engineering\\Semester 1\\ECE490\\Analog-Drum-Machine\\Mixer\\Summing_Test.wav" 16 44100 Out
TEXT 1336 648 Left 2 !.tran 0 4 0
