Version 4
SHEET 1 880 680
WIRE 192 -32 192 -80
WIRE 224 -32 192 -32
WIRE 336 -32 288 -32
WIRE 576 -32 576 -80
WIRE -48 0 -144 0
WIRE 96 0 16 0
WIRE 336 0 336 -32
WIRE -144 96 -144 0
WIRE -112 96 -144 96
WIRE 0 96 -32 96
WIRE 96 96 96 0
WIRE 96 96 80 96
WIRE 288 96 96 96
WIRE 704 112 704 48
WIRE 192 128 192 -32
WIRE -288 144 -352 144
WIRE -176 144 -208 144
WIRE -144 144 -144 96
WIRE -144 144 -176 144
WIRE 160 144 -144 144
WIRE 288 160 288 96
WIRE 288 160 224 160
WIRE 400 160 288 160
WIRE 464 160 400 160
WIRE -352 176 -352 144
WIRE 160 176 128 176
WIRE 400 208 400 160
WIRE 192 256 192 192
WIRE 224 256 192 256
WIRE 304 256 288 256
WIRE -352 304 -352 256
WIRE 304 304 304 256
WIRE 128 320 128 176
WIRE 400 320 400 288
WIRE 192 336 192 256
FLAG 128 320 0
FLAG 400 320 0
FLAG 336 0 0
FLAG 576 48 0
FLAG 576 -80 vdd!
FLAG 192 -80 vdd!
FLAG -352 304 0
FLAG 464 160 Out
FLAG 704 -32 0
FLAG 704 112 -vdd!
FLAG 192 336 -vdd!
FLAG 304 304 0
FLAG -176 144 IN
SYMBOL cap 288 -48 R90
WINDOW 0 0 32 VBottom 2
WINDOW 3 32 32 VTop 2
SYMATTR InstName C1
SYMATTR Value 100n
SYMBOL cap 16 -16 R90
WINDOW 0 0 32 VBottom 2
WINDOW 3 32 32 VTop 2
SYMATTR InstName C2
SYMATTR Value 47p
SYMBOL res -16 80 R90
WINDOW 0 0 56 VBottom 2
WINDOW 3 32 56 VTop 2
SYMATTR InstName R1
SYMATTR Value 22k
SYMBOL res -192 128 R90
WINDOW 0 0 56 VBottom 2
WINDOW 3 32 56 VTop 2
SYMATTR InstName R3
SYMATTR Value 47k
SYMBOL res 416 304 R180
WINDOW 0 36 76 Left 2
WINDOW 3 36 40 Left 2
SYMATTR InstName R4
SYMATTR Value 22k
SYMBOL res 96 80 R90
WINDOW 0 0 56 VBottom 2
WINDOW 3 32 56 VTop 2
SYMATTR InstName R2
SYMATTR Value 0
SYMBOL voltage 576 -48 R0
WINDOW 123 0 0 Left 0
WINDOW 39 0 0 Left 0
SYMATTR InstName V1
SYMATTR Value 15V
SYMBOL voltage -352 160 R0
WINDOW 3 24 -351 Left 2
SYMATTR Value wavefile=Basic_Rock_135.wav
SYMATTR InstName V2
SYMBOL voltage 704 -48 R0
WINDOW 123 0 0 Left 0
WINDOW 39 0 0 Left 0
SYMATTR InstName V3
SYMATTR Value 15V
SYMBOL Opamps\\OP4177 192 96 R0
SYMATTR InstName U2
SYMBOL cap 288 240 R90
WINDOW 0 0 32 VBottom 2
WINDOW 3 32 32 VTop 2
SYMATTR InstName C3
SYMATTR Value 100n
TEXT -384 344 Left 2 !.tran 0 1s 0
TEXT -472 440 Left 2 !.wav "C:\\Users\\Andrew\\Documents\\Business\\Capstone\\Analog-Drum-Machine\\Mixer" 16 44100 Out
