Version 4
SHEET 1 1912 796
WIRE -32 -208 -144 -208
WIRE 128 -208 32 -208
WIRE 704 -176 704 -224
WIRE 704 -64 704 -96
WIRE 704 -64 592 -64
WIRE 192 -32 192 -80
WIRE 224 -32 192 -32
WIRE 336 -32 288 -32
WIRE 704 -32 704 -64
WIRE 592 -16 592 -64
WIRE 336 0 336 -32
WIRE 128 64 128 -208
WIRE 128 64 80 64
WIRE -144 96 -144 -208
WIRE -112 96 -144 96
WIRE 32 96 -32 96
WIRE 128 96 128 64
WIRE 288 96 128 96
WIRE 704 112 704 48
WIRE 192 128 192 -32
WIRE -432 144 -480 144
WIRE -288 144 -368 144
WIRE -176 144 -208 144
WIRE -144 144 -144 96
WIRE -144 144 -176 144
WIRE 160 144 -144 144
WIRE 288 160 288 96
WIRE 288 160 224 160
WIRE 400 160 288 160
WIRE -480 176 -480 144
WIRE 160 176 128 176
WIRE 400 208 400 160
WIRE 192 256 192 192
WIRE 224 256 192 256
WIRE 304 256 288 256
WIRE 576 256 448 256
WIRE -480 304 -480 256
WIRE 304 304 304 256
WIRE 128 320 128 176
WIRE 400 320 400 288
WIRE 192 336 192 256
FLAG 128 320 0
FLAG 400 320 0
FLAG 336 0 0
FLAG 704 -224 vdd!
FLAG 192 -80 vdd!
FLAG -480 304 0
FLAG 704 112 -vdd!
FLAG 192 336 -vdd!
FLAG 304 304 0
FLAG -176 144 IN
FLAG 592 -16 0
FLAG 576 256 pow
SYMBOL cap 288 -48 R90
WINDOW 0 0 32 VBottom 2
WINDOW 3 32 32 VTop 2
SYMATTR InstName C1
SYMATTR Value 220n
SYMBOL cap 32 -224 R90
WINDOW 0 0 32 VBottom 2
WINDOW 3 32 32 VTop 2
SYMATTR InstName C2
SYMATTR Value 0.15n
SYMBOL res -16 80 R90
WINDOW 0 0 56 VBottom 2
WINDOW 3 32 56 VTop 2
SYMATTR InstName R1
SYMATTR Value 4.7k
SYMBOL res -192 128 R90
WINDOW 0 0 56 VBottom 2
WINDOW 3 32 56 VTop 2
SYMATTR InstName R3
SYMATTR Value 10k
SYMBOL voltage 704 -192 R0
WINDOW 123 0 0 Left 0
WINDOW 39 0 0 Left 0
SYMATTR InstName V1
SYMATTR Value 12
SYMBOL voltage -480 160 R0
WINDOW 3 -71 -10 VRight 2
WINDOW 123 42 95 Left 2
WINDOW 39 0 0 Left 0
SYMATTR Value SINE()
SYMATTR Value2 AC 1
SYMATTR InstName V2
SYMBOL voltage 704 -48 R0
WINDOW 123 0 0 Left 0
WINDOW 39 0 0 Left 0
SYMATTR InstName V3
SYMATTR Value 12
SYMBOL cap 288 240 R90
WINDOW 0 0 32 VBottom 2
WINDOW 3 32 32 VTop 2
SYMATTR InstName C3
SYMATTR Value 220n
SYMBOL cap -368 128 R90
WINDOW 0 0 32 VBottom 2
WINDOW 3 32 32 VTop 2
SYMATTR InstName C4
SYMATTR Value 10µ
SYMBOL potentiometer_standard 384 192 R0
SYMATTR InstName U3
SYMATTR Value Rtot=22K wiper={Volume}
SYMATTR SpiceModel pot_pow
SYMBOL potentiometer_standard 16 0 R0
WINDOW 3 -114 -12 Left 2
WINDOW 39 -116 -35 Left 2
SYMATTR Value Rtot=22K wiper=1
SYMATTR InstName U1
SYMATTR SpiceModel pot_pow
SYMBOL Opamps\\OP07 192 96 R0
SYMATTR InstName U2
TEXT -640 472 Left 2 !;tran 0 1 0
TEXT -648 496 Left 2 !.wav "C:\\Users\\b59mi\\Documents\\Business\\4th Year Engineering\\Semester 1\\ECE490\\Analog-Drum-Machine\\Mixer\\Preamp.wav" 16 44100 pow
TEXT -648 536 Left 2 !.ac dec 100 1 100K
TEXT -632 440 Left 2 !.step param Volume 0.2 1 0.2
TEXT 1216 -424 Left 2 ;* Model for uA741 Op Amp (from EVAL library in PSpice)\n* connections: non-inverting input\n* | inverting input\n* | | positive power supply\n* | | | negative power supply\n* | | | | output\n* | | | | |\n*\n.subckt uA741 1 2 3 4 5\n*\nc1 11 12 8.661E-12\nc2 6 7 30.00E-12\ndc 5 53 dy\nde 54 5 dy\ndlp 90 91 dx\ndln 92 90 dx\ndp 4 3 dx\negnd 99 0 poly(2),(3,0),(4,0) 0 .5 .5\nfb 7 99 poly(5) vb vc ve vlp vln 0 10.61E6 -1E3 1E3 10E6 -10E6\nga 6 0 11 12 188.5E-6\ngcm 0 6 10 99 5.961E-9\niee 10 4 dc 15.16E-6\nhlim 90 0 vlim 1K\nq1 11 2 13 qx\nq2 12 1 14 qx\nr2 6 9 100.0E3\nrc1 3 11 5.305E3\nrc2 3 12 5.305E3\nre1 13 10 1.836E3\nre2 14 10 1.836E3\nree 10 99 13.19E6\nro1 8 5 50\nro2 7 99 100\nrp 3 4 18.16E3\nvb 9 0 dc 0\nvc 3 53 dc 1\nve 54 4 dc 1\nvlim 7 8 dc 0\nvlp 91 0 dc 40\nvln 0 92 dc 40\n.model dx D(Is=800.0E-18 Rs=1)\n.model dy D(Is=800.00E-18 Rs=1m Cjo=10p)\n.model qx NPN(Is=800.0E-18 Bf=93.75)\n.ends
