Version 4
SHEET 1 1772 1016
WIRE 576 -176 576 -224
WIRE -432 -32 -480 -32
WIRE -320 -32 -352 -32
WIRE 704 -32 704 -96
WIRE -432 64 -480 64
WIRE -320 64 -320 -32
WIRE -320 64 -352 64
WIRE 0 144 -96 144
WIRE 160 144 64 144
WIRE 240 144 240 96
WIRE 272 144 240 144
WIRE 384 144 336 144
WIRE -432 160 -480 160
WIRE -320 160 -320 64
WIRE -320 160 -352 160
WIRE 384 176 384 144
WIRE -432 256 -480 256
WIRE -320 256 -320 160
WIRE -320 256 -352 256
WIRE -96 272 -96 144
WIRE 0 272 -96 272
WIRE 160 272 160 144
WIRE 160 272 80 272
WIRE 336 272 160 272
WIRE 240 304 240 144
WIRE -320 320 -320 256
WIRE -128 320 -320 320
WIRE -96 320 -96 272
WIRE -96 320 -128 320
WIRE 208 320 -96 320
WIRE 336 336 336 272
WIRE 336 336 272 336
WIRE 464 336 336 336
WIRE 576 336 528 336
WIRE 704 336 656 336
WIRE -432 352 -480 352
WIRE -320 352 -320 320
WIRE -320 352 -352 352
WIRE 208 352 176 352
WIRE 240 432 240 368
WIRE 272 432 240 432
WIRE 352 432 336 432
WIRE -432 448 -848 448
WIRE -320 448 -320 352
WIRE -320 448 -352 448
WIRE 352 480 352 432
WIRE 176 496 176 352
WIRE 240 512 240 432
WIRE -432 544 -704 544
WIRE -320 544 -320 448
WIRE -320 544 -352 544
WIRE -848 640 -848 448
WIRE -704 640 -704 544
WIRE -432 640 -592 640
WIRE -320 640 -320 544
WIRE -320 640 -352 640
FLAG 176 496 0
FLAG 384 176 0
FLAG 576 -96 0
FLAG 576 -224 vdd!
FLAG 240 96 vdd!
FLAG 704 -176 0
FLAG 704 -32 -vdd!
FLAG 240 512 -vdd!
FLAG 352 480 0
FLAG -128 320 IN
FLAG 704 336 Out
IOPIN 704 336 Out
FLAG -592 720 0
SYMBOL cap 336 128 R90
WINDOW 0 0 32 VBottom 2
WINDOW 3 32 32 VTop 2
SYMATTR InstName C1
SYMATTR Value 100n
SYMBOL res 96 256 R90
WINDOW 0 0 56 VBottom 2
WINDOW 3 32 56 VTop 2
SYMATTR InstName R4
SYMATTR Value {Gain}
SYMBOL voltage 576 -192 R0
WINDOW 123 0 0 Left 0
WINDOW 39 0 0 Left 0
SYMATTR InstName V1
SYMATTR Value 14V
SYMBOL voltage 704 -192 R0
WINDOW 123 0 0 Left 0
WINDOW 39 0 0 Left 0
SYMATTR InstName V3
SYMATTR Value 14V
SYMBOL cap 336 416 R90
WINDOW 0 0 32 VBottom 2
WINDOW 3 32 32 VTop 2
SYMATTR InstName C3
SYMATTR Value 100n
SYMBOL Opamps\\LT1079 240 272 R0
SYMATTR InstName U1
SYMBOL res -336 -48 R90
WINDOW 0 0 56 VBottom 2
WINDOW 3 32 56 VTop 2
SYMATTR InstName R9
SYMATTR Value 22k
SYMBOL cap 64 128 R90
WINDOW 0 0 32 VBottom 2
WINDOW 3 32 32 VTop 2
SYMATTR InstName C2
SYMATTR Value 0.24n
SYMBOL res -336 48 R90
WINDOW 0 0 56 VBottom 2
WINDOW 3 32 56 VTop 2
SYMATTR InstName R1
SYMATTR Value 22k
SYMBOL res -336 144 R90
WINDOW 0 0 56 VBottom 2
WINDOW 3 32 56 VTop 2
SYMATTR InstName R2
SYMATTR Value 22k
SYMBOL res -336 240 R90
WINDOW 0 0 56 VBottom 2
WINDOW 3 32 56 VTop 2
SYMATTR InstName R3
SYMATTR Value 22k
SYMBOL res -336 336 R90
WINDOW 0 0 56 VBottom 2
WINDOW 3 32 56 VTop 2
SYMATTR InstName R5
SYMATTR Value 22k
SYMBOL res -336 432 R90
WINDOW 0 0 56 VBottom 2
WINDOW 3 32 56 VTop 2
SYMATTR InstName R6
SYMATTR Value 22k
SYMBOL res -336 528 R90
WINDOW 0 0 56 VBottom 2
WINDOW 3 32 56 VTop 2
SYMATTR InstName R7
SYMATTR Value 22k
SYMBOL res -336 624 R90
WINDOW 0 0 56 VBottom 2
WINDOW 3 32 56 VTop 2
SYMATTR InstName R8
SYMATTR Value 22k
SYMBOL cap 528 320 R90
WINDOW 0 0 32 VBottom 2
WINDOW 3 32 32 VTop 2
SYMATTR InstName C4
SYMATTR Value 4.7µ
SYMBOL res 672 320 R90
WINDOW 0 0 56 VBottom 2
WINDOW 3 32 56 VTop 2
SYMATTR InstName R10
SYMATTR Value 47
SYMBOL voltage -592 624 R0
WINDOW 3 -47 19 VRight 2
WINDOW 123 24 44 Left 2
WINDOW 39 0 0 Left 0
SYMATTR Value ""
SYMATTR InstName V2
SYMATTR Value2 AC 1
TEXT -136 640 Left 2 !;tran 0 2s 0
TEXT 424 592 Left 2 !.wav "C:\\Users\\Andrew\\Documents\\Business\\Capstone\\Analog-Drum-Machine\\Mixer\\Summing_Test.wav" 16 44100 Out
TEXT -136 672 Left 2 !.step param Gain 1 22k 2k
TEXT -128 704 Left 2 !.ac dec 20 1 100k
