Version 4
SHEET 1 1772 1016
WIRE 624 -176 624 -224
WIRE 624 -64 624 -96
WIRE 624 -64 512 -64
WIRE 624 -32 624 -64
WIRE -432 -16 -480 -16
WIRE -320 -16 -352 -16
WIRE 512 -16 512 -64
WIRE -48 64 -176 64
WIRE 160 64 16 64
WIRE -432 80 -480 80
WIRE -320 80 -320 -16
WIRE -320 80 -352 80
WIRE 624 112 624 48
WIRE 240 144 240 96
WIRE 272 144 240 144
WIRE 384 144 336 144
WIRE -432 176 -480 176
WIRE -320 176 -320 80
WIRE -320 176 -352 176
WIRE 384 176 384 144
WIRE 160 208 160 64
WIRE 160 208 32 208
WIRE -176 240 -176 64
WIRE -16 240 -176 240
WIRE -432 272 -480 272
WIRE -320 272 -320 176
WIRE -320 272 -352 272
WIRE 160 272 160 208
WIRE 336 272 160 272
WIRE 240 304 240 144
WIRE -320 320 -320 272
WIRE -176 320 -176 240
WIRE -176 320 -320 320
WIRE 208 320 -176 320
WIRE 336 336 336 272
WIRE 336 336 272 336
WIRE 464 336 336 336
WIRE 576 336 528 336
WIRE 704 336 656 336
WIRE 208 352 176 352
WIRE -432 368 -480 368
WIRE -320 368 -320 320
WIRE -320 368 -352 368
WIRE -432 464 -480 464
WIRE -320 464 -320 368
WIRE -320 464 -352 464
WIRE 240 480 240 368
WIRE 272 480 240 480
WIRE 384 480 336 480
WIRE 176 496 176 352
WIRE 384 512 384 480
WIRE -432 560 -480 560
WIRE -320 560 -320 464
WIRE -320 560 -352 560
WIRE 240 560 240 480
WIRE -432 656 -480 656
WIRE -320 656 -320 560
WIRE -320 656 -352 656
FLAG 176 496 0
FLAG 384 176 0
FLAG 240 96 vdd!
FLAG 240 560 -vdd!
FLAG 704 336 Out
IOPIN 704 336 Out
FLAG 384 512 0
FLAG 624 -224 vdd!
FLAG 624 112 -vdd!
FLAG 512 -16 0
SYMBOL cap 336 128 R90
WINDOW 0 0 32 VBottom 2
WINDOW 3 32 32 VTop 2
SYMATTR InstName C1
SYMATTR Value 100n
SYMBOL cap 336 464 R90
WINDOW 0 0 32 VBottom 2
WINDOW 3 32 32 VTop 2
SYMATTR InstName C3
SYMATTR Value 100n
SYMBOL res -336 -32 R90
WINDOW 0 0 56 VBottom 2
WINDOW 3 32 56 VTop 2
SYMATTR InstName R9
SYMATTR Value 4.7k
SYMBOL cap 16 48 R90
WINDOW 0 0 32 VBottom 2
WINDOW 3 32 32 VTop 2
SYMATTR InstName C2
SYMATTR Value 0.85n
SYMBOL cap 528 320 R90
WINDOW 0 0 32 VBottom 2
WINDOW 3 32 32 VTop 2
SYMATTR InstName C4
SYMATTR Value 4.7µ
SYMBOL res 672 320 R90
WINDOW 0 0 56 VBottom 2
WINDOW 3 32 56 VTop 2
SYMATTR InstName R10
SYMATTR Value 47
SYMBOL res -336 64 R90
WINDOW 0 0 56 VBottom 2
WINDOW 3 32 56 VTop 2
SYMATTR InstName R1
SYMATTR Value 4.7k
SYMBOL res -336 160 R90
WINDOW 0 0 56 VBottom 2
WINDOW 3 32 56 VTop 2
SYMATTR InstName R2
SYMATTR Value 4.7k
SYMBOL res -336 256 R90
WINDOW 0 0 56 VBottom 2
WINDOW 3 32 56 VTop 2
SYMATTR InstName R3
SYMATTR Value 4.7k
SYMBOL res -336 352 R90
WINDOW 0 0 56 VBottom 2
WINDOW 3 32 56 VTop 2
SYMATTR InstName R5
SYMATTR Value 4.7k
SYMBOL res -336 448 R90
WINDOW 0 0 56 VBottom 2
WINDOW 3 32 56 VTop 2
SYMATTR InstName R6
SYMATTR Value 4.7k
SYMBOL res -336 544 R90
WINDOW 0 0 56 VBottom 2
WINDOW 3 32 56 VTop 2
SYMATTR InstName R7
SYMATTR Value 4.7k
SYMBOL res -336 640 R90
WINDOW 0 0 56 VBottom 2
WINDOW 3 32 56 VTop 2
SYMATTR InstName R8
SYMATTR Value 4.7k
SYMBOL voltage 624 -192 R0
WINDOW 123 0 0 Left 0
WINDOW 39 0 0 Left 0
SYMATTR InstName V1
SYMATTR Value 15V
SYMBOL voltage 624 -48 R0
WINDOW 123 0 0 Left 0
WINDOW 39 0 0 Left 0
SYMATTR InstName V3
SYMATTR Value 15V
SYMBOL Opamps\\OP4177 240 272 R0
SYMATTR InstName U2
SYMBOL potentiometer_standard -32 144 R0
SYMATTR InstName U1
SYMATTR Value Rtot=4.7K wiper=0.5
SYMATTR SpiceModel pot_pow
TEXT -136 736 Left 2 !.wav "C:\\Users\\b59mi\\Documents\\Business\\4th Year Engineering\\Semester 1\\ECE490\\Analog-Drum-Machine\\Mixer\\Summing_Test.wav" 16 44100 Out
TEXT -136 696 Left 2 !.tran 0 4 0
