Version 4
SHEET 1 2272 680
WIRE 1424 -1104 752 -1104
WIRE 1184 -1040 832 -1040
WIRE 1296 -1040 1184 -1040
WIRE 1184 -1008 1184 -1040
WIRE 1296 -944 1296 -1040
WIRE 1184 -896 1184 -928
WIRE 1232 -896 1184 -896
WIRE 1184 -864 1184 -896
WIRE 1056 -800 944 -800
WIRE 1296 -800 1296 -848
WIRE 1840 -800 1840 -832
WIRE 1056 -768 1056 -800
WIRE 1184 -720 1184 -784
WIRE 1840 -688 1840 -720
WIRE 1840 -688 1760 -688
WIRE 1056 -672 1056 -688
WIRE 1120 -672 1056 -672
WIRE 832 -656 832 -1040
WIRE 944 -656 944 -800
WIRE 1056 -656 1056 -672
WIRE 1760 -656 1760 -688
WIRE 1840 -656 1840 -688
WIRE 1296 -608 1296 -720
WIRE 832 -544 832 -576
WIRE 944 -544 944 -576
WIRE 1056 -544 1056 -576
WIRE 1184 -544 1184 -624
WIRE 1840 -544 1840 -576
WIRE 752 -512 752 -1104
WIRE 1424 -512 1424 -1104
WIRE 1424 -512 752 -512
WIRE 384 -496 384 -528
WIRE 544 -480 512 -480
WIRE 560 -480 544 -480
WIRE 640 -480 608 -480
WIRE 816 -480 720 -480
WIRE 912 -480 816 -480
WIRE 1296 -480 1296 -544
WIRE 1296 -480 912 -480
WIRE 1296 -448 1296 -480
WIRE 512 -432 512 -480
WIRE 912 -416 912 -480
WIRE 944 -416 912 -416
WIRE 1072 -416 1024 -416
WIRE 1184 -416 1136 -416
WIRE 720 -400 720 -480
WIRE 816 -400 816 -480
WIRE 80 -384 -16 -384
WIRE 224 -384 160 -384
WIRE 272 -384 224 -384
WIRE 384 -384 384 -416
WIRE 384 -384 336 -384
WIRE 448 -384 384 -384
WIRE 1184 -368 1184 -416
WIRE 1296 -368 1296 -384
WIRE -16 -352 -16 -384
WIRE 224 -352 224 -384
WIRE 512 -304 512 -336
WIRE 640 -240 640 -480
WIRE 816 -240 816 -320
WIRE 816 -240 640 -240
WIRE 864 -240 816 -240
WIRE 1024 -240 944 -240
WIRE 1136 -240 1088 -240
WIRE 1184 -240 1136 -240
WIRE 1296 -240 1248 -240
WIRE 1456 -240 1296 -240
WIRE 1296 -208 1296 -240
WIRE -16 -160 -16 -272
WIRE 224 -160 224 -272
WIRE 512 -160 512 -224
WIRE 384 -112 384 -144
WIRE 1392 -112 1392 -144
WIRE 544 -96 512 -96
WIRE 560 -96 544 -96
WIRE 720 -96 720 -320
WIRE 720 -96 608 -96
WIRE 864 -96 720 -96
WIRE 1024 -96 944 -96
WIRE 1136 -96 1136 -240
WIRE 1136 -96 1088 -96
WIRE 1184 -96 1136 -96
WIRE 1296 -96 1296 -128
WIRE 1296 -96 1248 -96
WIRE 1360 -96 1296 -96
WIRE 1456 -80 1456 -240
WIRE 1456 -80 1424 -80
WIRE 1504 -80 1456 -80
WIRE 1632 -80 1568 -80
WIRE 1136 -64 1136 -96
WIRE 1360 -64 1328 -64
WIRE 512 -48 512 -96
WIRE 1632 -48 1632 -80
WIRE 1392 -16 1392 -48
WIRE 2112 -16 1952 -16
WIRE 80 0 -16 0
WIRE 224 0 160 0
WIRE 272 0 224 0
WIRE 384 0 384 -32
WIRE 384 0 336 0
WIRE 448 0 384 0
WIRE -16 32 -16 0
WIRE 224 32 224 0
WIRE 1136 48 1136 16
WIRE 1328 48 1328 -64
WIRE 512 80 512 48
WIRE 1632 80 1632 32
WIRE 2016 80 2016 48
WIRE 1952 96 1952 -16
WIRE 1984 96 1952 96
WIRE 2112 112 2112 -16
WIRE 2112 112 2048 112
WIRE 2176 112 2112 112
WIRE 1808 128 1680 128
WIRE 1936 128 1872 128
WIRE 1984 128 1936 128
WIRE 1936 160 1936 128
WIRE 2016 176 2016 144
WIRE -16 224 -16 112
WIRE 224 224 224 112
WIRE 512 224 512 160
WIRE 1632 272 1632 160
WIRE 1936 272 1936 240
FLAG -16 224 0
FLAG 224 224 0
FLAG 512 224 0
FLAG 1632 272 0
FLAG 1936 272 0
FLAG -16 -160 0
FLAG 224 -160 0
FLAG 512 -160 0
FLAG 1136 48 0
FLAG 1328 48 0
FLAG 1184 -368 0
FLAG 1296 -368 0
FLAG 832 -544 0
FLAG 944 -544 0
FLAG 1056 -544 0
FLAG 1184 -544 0
FLAG 1760 -656 0
FLAG 1840 -832 pos
FLAG 1840 -544 neg
FLAG 384 -528 pos
FLAG 384 -144 pos
FLAG 2176 112 out
IOPIN 2176 112 Out
FLAG 2016 48 pos
FLAG 1392 -144 pos
FLAG 2016 176 neg
FLAG 1392 -16 neg
SYMBOL voltage -16 16 R0
WINDOW 3 -205 -84 Left 2
WINDOW 123 0 0 Left 0
WINDOW 39 0 0 Left 0
SYMATTR InstName V1
SYMATTR Value PULSE(0 5 0 10u 10u 0.000625 0.00125)
SYMBOL res 176 -16 R90
WINDOW 0 0 56 VBottom 2
WINDOW 3 32 56 VTop 2
SYMATTR InstName R1
SYMATTR Value 33k
SYMBOL res 240 128 R180
WINDOW 0 36 76 Left 2
WINDOW 3 36 40 Left 2
SYMATTR InstName R2
SYMATTR Value 2.2k
SYMBOL res 400 -16 R180
WINDOW 0 36 76 Left 2
WINDOW 3 36 40 Left 2
SYMATTR InstName R3
SYMATTR Value 470k
SYMBOL res 528 176 R180
WINDOW 0 36 76 Left 2
WINDOW 3 36 40 Left 2
SYMATTR InstName R4
SYMATTR Value 100
SYMBOL npn 448 -48 R0
SYMATTR InstName Q1
SYMATTR Value Q2N3904
SYMBOL cap 336 -16 R90
WINDOW 0 0 32 VBottom 2
WINDOW 3 32 32 VTop 2
SYMATTR InstName C1
SYMATTR Value 10µ
SYMBOL diode 608 -112 R90
WINDOW 0 0 32 VBottom 2
WINDOW 3 32 32 VTop 2
SYMATTR InstName D1
SYMATTR Value 1n4148
SYMATTR Prefix X
SYMBOL cap 1088 -112 R90
WINDOW 0 0 32 VBottom 2
WINDOW 3 32 32 VTop 2
SYMATTR InstName C2
SYMATTR Value 0.0022µ
SYMBOL res 1120 -80 R0
SYMATTR InstName R6
SYMATTR Value 2.2k
SYMBOL cap 1248 -112 R90
WINDOW 0 0 32 VBottom 2
WINDOW 3 32 32 VTop 2
SYMATTR InstName C3
SYMATTR Value .01µ
SYMBOL res 1280 -224 R0
SYMATTR InstName R7
SYMATTR Value 470k
SYMBOL Opamps\\opamp2 1392 -144 R0
SYMATTR InstName U1
SYMATTR Value uA741
SYMBOL cap 1568 -96 R90
WINDOW 0 0 32 VBottom 2
WINDOW 3 32 32 VTop 2
SYMATTR InstName C4
SYMATTR Value 1µ
SYMBOL res 1616 -64 R0
SYMATTR InstName R8
SYMATTR Value 8.2k
SYMBOL potentiometer_standard 1616 64 R0
WINDOW 3 -42 -32 VRight 1
WINDOW 39 -21 -17 VRight 1
SYMATTR InstName U2
SYMATTR Value Rtot=5K wiper=.5
SYMATTR SpiceModel pot_pow
SYMBOL cap 1872 112 R90
WINDOW 0 0 32 VBottom 2
WINDOW 3 32 32 VTop 2
SYMATTR InstName C5
SYMATTR Value .022µ
SYMBOL res 1920 144 R0
SYMATTR InstName R9
SYMATTR Value 22k
SYMBOL Opamps\\opamp2 2016 48 R0
SYMATTR InstName U3
SYMATTR Value uA741
SYMBOL voltage -16 -368 R0
WINDOW 3 -202 -101 Left 2
WINDOW 123 0 0 Left 0
WINDOW 39 0 0 Left 0
SYMATTR InstName V2
SYMATTR Value PULSE(0 5 0 10u 10u 0.000925 0.00185)
SYMBOL res 176 -400 R90
WINDOW 0 0 56 VBottom 2
WINDOW 3 32 56 VTop 2
SYMATTR InstName R10
SYMATTR Value 33k
SYMBOL res 240 -256 R180
WINDOW 0 36 76 Left 2
WINDOW 3 36 40 Left 2
SYMATTR InstName R11
SYMATTR Value 2.2k
SYMBOL res 400 -400 R180
WINDOW 0 36 76 Left 2
WINDOW 3 36 40 Left 2
SYMATTR InstName R12
SYMATTR Value 470k
SYMBOL res 528 -208 R180
WINDOW 0 36 76 Left 2
WINDOW 3 36 40 Left 2
SYMATTR InstName R13
SYMATTR Value 100
SYMBOL npn 448 -432 R0
SYMATTR InstName Q2
SYMATTR Value Q2N3904
SYMBOL cap 336 -400 R90
WINDOW 0 0 32 VBottom 2
WINDOW 3 32 32 VTop 2
SYMATTR InstName C6
SYMATTR Value 10µ
SYMBOL diode 608 -496 R90
WINDOW 0 0 32 VBottom 2
WINDOW 3 32 32 VTop 2
SYMATTR InstName D2
SYMATTR Value 1n4148
SYMATTR Prefix X
SYMBOL res 736 -304 R180
WINDOW 0 36 76 Left 2
WINDOW 3 36 40 Left 2
SYMATTR InstName R15
SYMATTR Value 100k
SYMBOL res 800 -416 R0
SYMATTR InstName R14
SYMATTR Value 100k
SYMBOL res 960 -256 R90
WINDOW 0 0 56 VBottom 2
WINDOW 3 32 56 VTop 2
SYMATTR InstName R16
SYMATTR Value 10k
SYMBOL cap 1088 -256 R90
WINDOW 0 0 32 VBottom 2
WINDOW 3 32 32 VTop 2
SYMATTR InstName C7
SYMATTR Value .0022µ
SYMBOL cap 1248 -256 R90
WINDOW 0 0 32 VBottom 2
WINDOW 3 32 32 VTop 2
SYMATTR InstName C8
SYMATTR Value .0033µ
SYMBOL res 960 -112 R90
WINDOW 0 0 56 VBottom 2
WINDOW 3 32 56 VTop 2
SYMATTR InstName R5
SYMATTR Value 10k
SYMBOL res 1040 -432 R90
WINDOW 0 0 56 VBottom 2
WINDOW 3 32 56 VTop 2
SYMATTR InstName R17
SYMATTR Value 33k
SYMBOL cap 1136 -432 R90
WINDOW 0 0 32 VBottom 2
WINDOW 3 32 32 VTop 2
SYMATTR InstName C9
SYMATTR Value 1µ
SYMBOL cap 1280 -448 R0
SYMATTR InstName C10
SYMATTR Value .47µ
SYMBOL diode 1280 -608 R0
SYMATTR InstName D3
SYMATTR Value 1n4148
SYMATTR Prefix X
SYMBOL res 1280 -816 R0
SYMATTR InstName R18
SYMATTR Value 1k
SYMBOL res 1168 -880 R0
SYMATTR InstName R19
SYMATTR Value 22k
SYMBOL res 1168 -1024 R0
SYMATTR InstName R20
SYMATTR Value 4.7k
SYMBOL npn 1120 -720 R0
SYMATTR InstName Q4
SYMATTR Value Q2N3904
SYMBOL res 1040 -784 R0
SYMATTR InstName R21
SYMATTR Value 22k
SYMBOL res 1040 -672 R0
SYMATTR InstName R22
SYMATTR Value 10k
SYMBOL voltage 944 -672 R0
WINDOW 3 -79 -406 Left 2
WINDOW 123 0 0 Left 0
WINDOW 39 0 0 Left 0
SYMATTR InstName V3
SYMATTR Value PULSE(0 14 1 10u 10u 0.001 1 4)
SYMBOL voltage 832 -672 R0
WINDOW 123 0 0 Left 0
WINDOW 39 0 0 Left 0
SYMATTR InstName V4
SYMATTR Value 14
SYMBOL voltage 1840 -672 R0
WINDOW 123 0 0 Left 0
WINDOW 39 0 0 Left 0
SYMATTR InstName V5
SYMATTR Value 15
SYMBOL voltage 1840 -816 R0
WINDOW 123 0 0 Left 0
WINDOW 39 0 0 Left 0
SYMATTR InstName V6
SYMATTR Value 15
SYMBOL pnp 1232 -848 M180
SYMATTR InstName Q3
SYMATTR Value 2N3906
TEXT -72 456 Left 2 !.inc Q2N3904.lib
TEXT -80 296 Left 2 ;Special thanks to Kurt James Werner for making the original TR808\nCowbell circuit from the service manual easier to read!
TEXT -72 384 Left 2 !.inc 1n4148.sub
TEXT -72 408 Left 2 !.inc uA741.sub
TEXT 808 120 Left 2 !.tran 0 5 0.5
TEXT 808 136 Left 2 !.wave output.wav 16 44.1K V(out)
TEXT 904 -952 Left 2 ;Trigger Logic
TEXT -208 -376 Left 2 ;Oscillator 1
TEXT -208 0 Left 2 ;Oscillator 2
TEXT -72 432 Left 2 !.inc 2N3906.lib
