Version 4
SHEET 1 4836 1164
WIRE 32 0 -96 0
WIRE 224 0 112 0
WIRE 448 0 368 0
WIRE 496 0 448 0
WIRE 624 0 496 0
WIRE 672 0 624 0
WIRE 784 0 736 0
WIRE 800 0 784 0
WIRE 864 0 800 0
WIRE 1008 0 944 0
WIRE 1136 0 1008 0
WIRE 1488 0 1376 0
WIRE 1632 0 1488 0
WIRE 1776 0 1728 0
WIRE 1872 0 1776 0
WIRE 1888 0 1872 0
WIRE 368 32 368 0
WIRE 1008 32 1008 0
WIRE 1376 48 1376 0
WIRE 224 80 224 0
WIRE 624 80 624 0
WIRE 672 80 624 80
WIRE 832 80 736 80
WIRE 1488 80 1488 0
WIRE 1680 80 1680 64
WIRE 1680 80 1584 80
WIRE 2368 96 2240 96
WIRE 2480 96 2368 96
WIRE 2512 96 2512 48
WIRE 2512 96 2480 96
WIRE 2656 96 2512 96
WIRE 2864 96 2656 96
WIRE 3088 96 2864 96
WIRE 224 112 224 80
WIRE 496 112 496 0
WIRE -96 128 -96 0
WIRE 368 144 368 112
WIRE 416 144 368 144
WIRE 1008 144 1008 96
WIRE 1008 144 928 144
WIRE 1184 144 1008 144
WIRE 2368 144 2368 96
WIRE 2656 144 2656 96
WIRE 416 160 416 144
WIRE 368 176 368 144
WIRE 928 176 928 144
WIRE 1776 176 1776 0
WIRE 1888 176 1888 0
WIRE 1376 192 1376 128
WIRE 1536 192 1536 144
WIRE 1536 192 1376 192
WIRE 1584 192 1536 192
WIRE 2480 192 2480 96
WIRE 1008 208 1008 144
WIRE 2864 208 2864 96
WIRE 672 224 624 224
WIRE 800 224 800 0
WIRE 800 224 736 224
WIRE 1584 224 1584 192
WIRE 2656 256 2656 224
WIRE 2800 256 2656 256
WIRE 2368 272 2368 224
WIRE 2656 272 2656 256
WIRE 2480 288 2480 272
WIRE 2480 288 2464 288
WIRE -96 304 -96 208
WIRE 160 304 -96 304
WIRE 224 304 224 192
WIRE 224 304 160 304
WIRE 368 304 368 256
WIRE 448 304 368 304
WIRE 496 304 496 192
WIRE 496 304 448 304
WIRE 624 304 624 224
WIRE 624 304 496 304
WIRE 672 304 624 304
WIRE 800 304 736 304
WIRE 832 304 832 80
WIRE 832 304 800 304
WIRE 864 304 832 304
WIRE 1008 304 1008 272
WIRE 1008 304 944 304
WIRE 1376 304 1376 192
WIRE 2480 304 2480 288
WIRE 3088 304 3088 96
WIRE 1584 320 1584 288
WIRE 2464 320 2464 288
WIRE 2464 320 2432 320
WIRE 2576 320 2560 320
WIRE 2592 320 2576 320
WIRE 160 336 160 304
WIRE 2432 336 2432 320
WIRE 2864 352 2864 304
WIRE 3024 352 2864 352
WIRE 2240 400 2240 96
WIRE 2368 416 2368 368
WIRE 2528 416 2368 416
WIRE 2656 416 2656 368
WIRE 2656 416 2528 416
WIRE 3088 432 3088 400
WIRE 3088 432 2944 432
WIRE 1184 448 1184 144
WIRE 1376 448 1376 368
WIRE 1376 448 1184 448
WIRE 1584 448 1584 384
WIRE 1584 448 1376 448
WIRE 1776 448 1776 240
WIRE 1776 448 1584 448
WIRE 1888 448 1888 256
WIRE 1888 448 1776 448
WIRE 2432 448 2432 400
WIRE 3088 448 3088 432
WIRE 1584 480 1584 448
WIRE 2240 496 2240 480
WIRE 2368 496 2240 496
WIRE 1376 512 1376 448
WIRE 2240 512 2240 496
WIRE 2528 512 2528 416
WIRE 2944 512 2944 432
WIRE 2368 560 2368 496
WIRE 2368 560 2304 560
WIRE 2464 560 2368 560
WIRE 1584 592 1584 544
WIRE 1776 656 1776 448
WIRE 1888 656 1888 448
WIRE 2528 672 2528 608
WIRE 2528 672 2416 672
WIRE 2944 672 2944 576
WIRE 2240 704 2240 608
WIRE 2528 704 2528 672
WIRE 1216 720 1184 720
WIRE 1376 720 1376 576
WIRE 1376 720 1296 720
WIRE 1440 720 1376 720
WIRE 1584 720 1584 656
WIRE 1584 720 1440 720
WIRE 2416 752 2416 672
WIRE 2416 752 2304 752
WIRE 2464 752 2416 752
WIRE 1440 768 1440 720
WIRE 1392 832 1344 832
WIRE 1568 832 1488 832
WIRE 1568 848 1568 832
WIRE 2240 864 2240 800
WIRE 2384 864 2240 864
WIRE 2528 864 2528 800
WIRE 2528 864 2384 864
WIRE 1008 912 1008 304
WIRE 1184 912 1184 720
WIRE 1184 912 1008 912
WIRE 1344 912 1344 832
WIRE 1344 912 1184 912
WIRE 1520 912 1344 912
WIRE 1776 912 1776 720
WIRE 1776 912 1616 912
WIRE 1888 912 1888 736
WIRE 1888 912 1776 912
WIRE 2384 912 2384 864
FLAG 416 160 0
FLAG 160 336 0
FLAG 224 80 Xmfr_primary
FLAG 448 0 Xfmr_secondary
FLAG 448 304 Xmfr_sec_neg
FLAG 928 176 0
FLAG 800 304 rect_neg
FLAG 784 0 rect_pos
FLAG 1872 0 +12V
FLAG 1888 912 -12V
FLAG 1136 0 V_rect
FLAG 2512 48 V_rect
FLAG 2384 912 0
FLAG 1376 0 2nd_stage
FLAG 3088 448 2nd_stage
FLAG 2480 384 0
FLAG 2432 448 0
FLAG 2576 320 2nd_stage
FLAG 2944 672 0
SYMBOL res 128 -16 R90
WINDOW 0 0 56 VBottom 2
WINDOW 3 32 56 VTop 2
SYMATTR InstName R1
SYMATTR Value 0.1
SYMBOL voltage -96 112 R0
WINDOW 123 0 0 Left 2
WINDOW 39 0 0 Left 2
SYMATTR InstName V1
SYMATTR Value SINE(0 169.7 60 0 0 0)
SYMBOL res 480 96 R0
SYMATTR InstName R2
SYMATTR Value 1000
SYMBOL ind2 240 208 R180
WINDOW 0 36 80 Left 2
WINDOW 3 36 40 Left 2
SYMATTR InstName L1
SYMATTR Value 330µ
SYMATTR Type ind
SYMBOL ind2 384 128 R180
WINDOW 0 36 80 Left 2
WINDOW 3 36 40 Left 2
SYMATTR InstName L2
SYMATTR Value 12.5µ
SYMATTR Type ind
SYMBOL ind2 384 272 R180
WINDOW 0 36 80 Left 2
WINDOW 3 36 40 Left 2
SYMATTR InstName L3
SYMATTR Value 12.5µ
SYMATTR Type ind
SYMBOL diode 672 16 R270
WINDOW 0 32 32 VTop 2
WINDOW 3 0 32 VBottom 2
SYMATTR InstName D1
SYMATTR Value RR601BM4S
SYMBOL diode 736 64 R90
WINDOW 0 0 32 VBottom 2
WINDOW 3 32 32 VTop 2
SYMATTR InstName D2
SYMATTR Value RR601BM4S
SYMBOL diode 736 288 R90
WINDOW 0 0 32 VBottom 2
WINDOW 3 32 32 VTop 2
SYMATTR InstName D3
SYMATTR Value RR601BM4S
SYMBOL diode 672 240 R270
WINDOW 0 32 32 VTop 2
WINDOW 3 0 32 VBottom 2
SYMATTR InstName D4
SYMATTR Value RR601BM4S
SYMBOL cap 992 32 R0
SYMATTR InstName C1
SYMATTR Value 6800µ
SYMBOL cap 992 208 R0
SYMATTR InstName C2
SYMATTR Value 6800µ
SYMBOL ind 848 16 R270
WINDOW 0 32 56 VTop 2
WINDOW 3 5 56 VBottom 2
SYMATTR InstName L4
SYMATTR Value 47µ
SYMBOL ind 848 320 R270
WINDOW 0 32 56 VTop 2
WINDOW 3 5 56 VBottom 2
SYMATTR InstName L5
SYMATTR Value 47µ
SYMBOL pnp 1520 848 M90
SYMATTR InstName Q2
SYMATTR Value KSA596YTU
SYMBOL res 1312 704 R90
WINDOW 0 0 56 VBottom 2
WINDOW 3 32 56 VTop 2
SYMATTR InstName R4
SYMATTR Value 1k
SYMBOL npn 1632 64 R270
SYMATTR InstName Q3
SYMATTR Value KSD526YTU
SYMBOL npn 1488 144 R270
SYMATTR InstName Q1
SYMATTR Value KSC2331YTA
SYMBOL res 1360 32 R0
SYMATTR InstName R3
SYMATTR Value 330
SYMBOL pnp 1392 768 M90
SYMATTR InstName Q4
SYMATTR Value KSA931YTA
SYMBOL cap 1360 512 R0
SYMATTR InstName C4
SYMATTR Value 1µf
SYMBOL res 1872 160 R0
SYMATTR InstName R6
SYMATTR Value 12
SYMBOL res 1872 640 R0
SYMATTR InstName R9
SYMATTR Value 12
SYMBOL cap 1360 304 R0
SYMATTR InstName C3
SYMATTR Value 1µ
SYMBOL zener 1600 288 R180
WINDOW 0 24 64 Left 2
WINDOW 3 24 0 Left 2
SYMATTR InstName D5
SYMATTR Value 1N750
SYMBOL zener 1600 384 R180
WINDOW 0 24 64 Left 2
WINDOW 3 24 0 Left 2
SYMATTR InstName D8
SYMATTR Value BZX84B9V1L
SYMBOL zener 1600 544 R180
WINDOW 0 24 64 Left 2
WINDOW 3 24 0 Left 2
SYMATTR InstName D6
SYMATTR Value 1N750
SYMBOL zener 1600 656 R180
WINDOW 0 24 64 Left 2
WINDOW 3 24 0 Left 2
SYMATTR InstName D9
SYMATTR Value BZX84B9V1L
SYMBOL cap 1760 176 R0
SYMATTR InstName C8
SYMATTR Value 100µ
SYMBOL cap 1760 656 R0
SYMATTR InstName C9
SYMATTR Value 100µ
SYMBOL npn 2592 272 R0
SYMATTR InstName Q5
SYMBOL npn 2432 272 M0
SYMATTR InstName Q6
SYMBOL res 2352 128 R0
SYMATTR InstName R5
SYMATTR Value 660
SYMBOL res 2640 128 R0
SYMATTR InstName R7
SYMATTR Value 660
SYMBOL npn 2304 512 M0
SYMATTR InstName Q7
SYMBOL npn 2464 512 R0
SYMATTR InstName Q8
SYMBOL npn 2304 704 M0
SYMATTR InstName Q9
SYMBOL npn 2464 704 R0
SYMATTR InstName Q10
SYMBOL res 2224 384 R0
SYMATTR InstName R8
SYMATTR Value 1k
SYMBOL npn 2800 208 R0
SYMATTR InstName Q11
SYMATTR Value KSC2331YTA
SYMBOL npn 3024 304 R0
SYMATTR InstName Q12
SYMATTR Value KSC2331YTA
SYMBOL res 2464 176 R0
SYMATTR InstName R11
SYMATTR Value 220
SYMBOL res 2464 288 R0
SYMATTR InstName R12
SYMATTR Value 1k
SYMBOL cap 2416 336 R0
SYMATTR InstName C5
SYMATTR Value 10µ
SYMBOL cap 2928 512 R0
SYMATTR InstName C6
SYMATTR Value 1000µ
TEXT 184 -16 Left 2 !K L1 L2 L3 1
TEXT -128 312 Left 2 !.tran 0 0.5 0 0.001
TEXT 1136 -224 Left 2 !.MODEL KSD526YTU AKO: 2SCR542P (Bf=15 Vceo=80)\n.MODEL KSC2331YTA AKO: 2SCR514P (Bf=40 Vceo=60)
TEXT 1184 1120 Left 2 !.MODEL KSA596YTU AKO: 2SAR542P (Bf=15 Vceo=80)\n.MODEL KSA931YTA AKO: 2SAR514P (Bf=40 Vceo=60)
